/*--------------------------------*- C++ -*----------------------------------*\
  =========                 |
  \\      /  F ield         | OpenFOAM: The Open Source CFD Toolbox
   \\    /   O peration     | Website:  https://openfoam.org
    \\  /    A nd           | Version:  10
     \\/     M anipulation  |
\*---------------------------------------------------------------------------*/
FoamFile
{
    format      ascii;
    class       dictionary;
    location    "system";
    object      controlDict;
}
// * * * * * * * * * * * * * * * * * * * * * * * * * * * * * * * * * * * * * //

application     chtMultiRegionFoam;

startFrom       latestTime;

startTime       0;

stopAt          endTime;

endTime         5000;

deltaT          1;

writeControl    timeStep;

writeInterval   100;

purgeWrite      2;

writeFormat     ascii;

writePrecision  8;

writeCompression off;

timeFormat      general;

timePrecision   6;

runTimeModifiable yes;

maxCo           0.2;

maxDi           5.0;

adjustTimeStep  no;

functions
{
    #includeFunc Qdot(region=FLUID)
}

libs
(
    "libporousHeRhoThermo.so"
);
// ************************************************************************* //
